LTspice 24.1.10 for Windows
Circuit: C:\Users\hayda\OneDrive\Documents\GitHub\industrial-can-sensor-node\hardware\ltspice\v1_voltage_divider_filter.cir
Start Time: Sun Jul 12 16:15:09 2026
solver = Normal
Maximum thread count: 8
tnom = 27
temp = 27
method = trap
AsciiRawFile = true
.OP point found by inspection.
Total elapsed time: 0.577 seconds.

Files loaded:
C:\Users\hayda\OneDrive\Documents\GitHub\industrial-can-sensor-node\hardware\ltspice\v1_voltage_divider_filter.cir

v_adc_12v: V(VSENSE_ADC)=2.51527700834 at 0.005
v_adc_9v: V(VSENSE_ADC)=1.95537249829 at 0.012
v_adc_15v: V(VSENSE_ADC)=3.1765692121 at 0.02
